
#(C) 2019 by FIZ Karlsruhe - Leibniz Institute for Information Infrastructure.  All rights reserved.
data_21022-ICSD
_database_code_ICSD 21022
_audit_creation_date 1980-01-01
_chemical_name_systematic 'Dilithium manganese(IV) oxide'
_chemical_formula_structural 'Li2 Mn O3'
_chemical_formula_sum 'Li2 Mn1 O3'
_chemical_name_structure_type Li2SnO3
_exptl_crystal_density_diffrn 3.9
_publ_section_title
'Zur Kenntnis der Na Cl Struktur Familie: neue Untersuchungen an Li2 Mn O3'
loop_
_citation_id
_citation_journal_full
_citation_year
_citation_journal_volume
_citation_page_first
_citation_page_last
_citation_journal_id_ASTM
primary 'Zeitschrift fuer Anorganische und Allgemeine Chemie (1950) (DE)' 1973
397 279 289 ZAACAB
loop_
_publ_author_name
'Jansen, M.'
'Hoppe, R.'
_cell_length_a 4.928
_cell_length_b 8.533
_cell_length_c 9.604
_cell_angle_alpha 90.
_cell_angle_beta 99.5
_cell_angle_gamma 90.
_cell_volume 398.32
_cell_formula_units_Z 8
_symmetry_space_group_name_H-M 'C 1 2/c 1'
_symmetry_Int_Tables_number 15
loop_
_symmetry_equiv_pos_site_id
_symmetry_equiv_pos_as_xyz
1 'x, -y, z+1/2'
2 '-x, -y, -z'
3 '-x, y, -z+1/2'
4 'x, y, z'
5 'x+1/2, -y+1/2, z+1/2'
6 '-x+1/2, -y+1/2, -z'
7 '-x+1/2, y+1/2, -z+1/2'
8 'x+1/2, y+1/2, z'
loop_
_atom_type_symbol
_atom_type_oxidation_number
Li1+ 1
Mn4+ 4
O2- -2
loop_
_atom_site_label
_atom_site_type_symbol
_atom_site_symmetry_multiplicity
_atom_site_Wyckoff_symbol
_atom_site_fract_x
_atom_site_fract_y
_atom_site_fract_z
_atom_site_B_iso_or_equiv
_atom_site_occupancy
_atom_site_attached_hydrogens
Li1 Li1+ 8 f 0.239 0.078 -.001 . 1. 0
Li2 Li1+ 4 d 0.25 0.25 0.5 . 1. 0
Li3 Li1+ 4 e 0 0.751 0.25 . 1. 0
Mn1 Mn4+ 4 e 0 0.4165 0.25 . 1. 0
Mn2 Mn4+ 4 e 0 0.083 0.25 . 1. 0
O1 O2- 8 f 0.1102 0.2497 0.1342 . 1. 0
O2 O2- 8 f 0.134 0.5736 0.1333 . 1. 0
O3 O2- 8 f 0.134 0.927 0.1333 . 1. 0
#End of TTdata_21022-ICSD