
#(C) 2019 by FIZ Karlsruhe - Leibniz Institute for Information Infrastructure.  All rights reserved.
data_33647-ICSD
_database_code_ICSD 33647
_audit_creation_date 1984-11-05
_audit_update_record 2002-04-01
_chemical_name_systematic 'Manganese(III) oxide'
_chemical_formula_structural 'Mn2 O3'
_chemical_formula_sum 'Mn2 O3'
_chemical_name_structure_type Sm2O3(cI80)
_chemical_name_mineral 'Bixbyite C'
_exptl_crystal_density_diffrn 5.03
_publ_section_title

;
Untersuchungen ueber die Kristallstruktur von Sesquioxyden und Verbindungen A
B O3
;
loop_
_citation_id
_citation_journal_full
_citation_year
_citation_journal_volume
_citation_page_first
_citation_page_last
_citation_journal_id_ASTM
primary

;
Papers - Norwegian Academy of Sciences and Letters, [Section] 1:
Mathematics-Natural Sciences Section
; 1928 1928 1 165 SUNVAQ
loop_
_publ_author_name
'Goldschmidt, V.M.'
'Barth, T.'
'Lunde, G.V.V.'
_cell_length_a 9.41(1)
_cell_length_b 9.41(1)
_cell_length_c 9.41(1)
_cell_angle_alpha 90.
_cell_angle_beta 90.
_cell_angle_gamma 90.
_cell_volume 833.24
_cell_formula_units_Z 16
_symmetry_space_group_name_H-M 'I 21 3'
_symmetry_Int_Tables_number 199
loop_
_symmetry_equiv_pos_site_id
_symmetry_equiv_pos_as_xyz
1 '-z+1/2, -x, y+1/2'
2 '-y+1/2, -z, x+1/2'
3 '-x+1/2, -y, z+1/2'
4 '-z, x+1/2, -y+1/2'
5 '-y, z+1/2, -x+1/2'
6 '-x, y+1/2, -z+1/2'
7 'z+1/2, -x+1/2, -y'
8 'y+1/2, -z+1/2, -x'
9 'x+1/2, -y+1/2, -z'
10 'z, x, y'
11 'y, z, x'
12 'x, y, z'
13 '-z, -x+1/2, y'
14 '-y, -z+1/2, x'
15 '-x, -y+1/2, z'
16 '-z+1/2, x, -y'
17 '-y+1/2, z, -x'
18 '-x+1/2, y, -z'
19 'z, -x, -y+1/2'
20 'y, -z, -x+1/2'
21 'x, -y, -z+1/2'
22 'z+1/2, x+1/2, y+1/2'
23 'y+1/2, z+1/2, x+1/2'
24 'x+1/2, y+1/2, z+1/2'
loop_
_atom_type_symbol
_atom_type_oxidation_number
Mn3+ 3
O2- -2
loop_
_atom_site_label
_atom_site_type_symbol
_atom_site_symmetry_multiplicity
_atom_site_Wyckoff_symbol
_atom_site_fract_x
_atom_site_fract_y
_atom_site_fract_z
_atom_site_B_iso_or_equiv
_atom_site_occupancy
_atom_site_attached_hydrogens
Mn1 Mn3+ 8 a 0.25 0.25 0.25 . 1. 0
Mn2 Mn3+ 12 b 0.021(7) 0 0.25 . 1. 0
Mn3 Mn3+ 12 b 0.542(14) 0 0.25 . 1. 0
O1 O2- 24 c 0.125 0.125 0.375 . 1. 0
O2 O2- 24 c 0.125 0.375 0.375 . 1. 0
#End of TTdata_33647-ICSD