
#(C) 2019 by FIZ Karlsruhe - Leibniz Institute for Information Infrastructure.  All rights reserved.
data_97867-ICSD
_database_code_ICSD 97867
_audit_creation_date 2004-10-01
_audit_update_record 2016-02-01
_chemical_name_systematic 'Manganese dimanganese(III) oxide - HP'
_chemical_formula_structural 'Mn3 O4'
_chemical_formula_sum 'Mn3 O4'
_chemical_name_structure_type CaMn2O4
_chemical_name_mineral Hausmannite
_exptl_crystal_density_diffrn 5.96
_cell_measurement_temperature 300.
_cell_measurement_pressure 21100000.
_publ_section_title 'High-pressure structural analysis of Mn3 O4'
loop_
_citation_id
_citation_journal_full
_citation_year
_citation_journal_volume
_citation_page_first
_citation_page_last
_citation_journal_id_ASTM
primary 'Journal of the Physical Society of Japan' 2003 72 765 766 JUPSAU
loop_
_publ_author_name
'Moritomo, Y.'
'Ohishi, Y.'
'Kuriki, A.'
'Nishibori, E.'
'Takata, M.'
'Sakata, M.'
_cell_length_a 2.8960(23)
_cell_length_b 9.5081(56)
_cell_length_c 9.2587(84)
_cell_angle_alpha 90
_cell_angle_beta 90
_cell_angle_gamma 90
_cell_volume 254.94
_cell_formula_units_Z 4
_symmetry_space_group_name_H-M 'P b c m'
_symmetry_Int_Tables_number 57
_refine_ls_R_factor_all 0.0043
loop_
_symmetry_equiv_pos_site_id
_symmetry_equiv_pos_as_xyz
1 'x, -y+1/2, z+1/2'
2 '-x, y+1/2, z'
3 'x, y, -z+1/2'
4 '-x, -y, -z'
5 '-x, y+1/2, -z+1/2'
6 'x, -y+1/2, -z'
7 '-x, -y, z+1/2'
8 'x, y, z'
loop_
_atom_type_symbol
_atom_type_oxidation_number
Mn2+ 2
Mn3+ 3
O2- -2
loop_
_atom_site_label
_atom_site_type_symbol
_atom_site_symmetry_multiplicity
_atom_site_Wyckoff_symbol
_atom_site_fract_x
_atom_site_fract_y
_atom_site_fract_z
_atom_site_B_iso_or_equiv
_atom_site_occupancy
_atom_site_attached_hydrogens
Mn1 Mn2+ 4 d 0.708(1) 0.371(1) 0.25 0.5 1. 0
Mn2 Mn3+ 8 e 0.228(11) 0.132(1) 0.084(1) 0.5 1. 0
O1 O2- 4 c 0.838(23) 0.25 0 0.5 1. 0
O2 O2- 4 d 0.248(49) 0.173(5) 0.25 0.5 1. 0
O3 O2- 8 e 0.334(17) 0.451(2) 0.057(8) 0.5 1. 0
#End of TTdata_97867-ICSD