# generated using pymatgen
data_TiO2
_symmetry_space_group_name_H-M   'P 1'
_cell_length_a   4.90400000
_cell_length_b   4.90400000
_cell_length_c   4.90400000
_cell_angle_alpha   90.00000000
_cell_angle_beta   90.00000000
_cell_angle_gamma   90.00000000
_symmetry_Int_Tables_number   1
_chemical_formula_structural   TiO2
_chemical_formula_sum   'Ti4 O8'
_cell_volume   117.93735526
_cell_formula_units_Z   4
loop_
 _symmetry_equiv_pos_site_id
 _symmetry_equiv_pos_as_xyz
  1  'x, y, z'
loop_
 _atom_type_symbol
 _atom_type_oxidation_number
  Ti4+  4.0
  O2-  -2.0
loop_
 _atom_site_type_symbol
 _atom_site_label
 _atom_site_symmetry_multiplicity
 _atom_site_fract_x
 _atom_site_fract_y
 _atom_site_fract_z
 _atom_site_occupancy
  Ti4+  Ti0  1  0.50000000  0.50000000  0.00000000  1.0
  Ti4+  Ti1  1  0.50000000  0.00000000  0.50000000  1.0
  Ti4+  Ti2  1  0.00000000  0.50000000  0.50000000  1.0
  Ti4+  Ti3  1  0.00000000  0.00000000  0.00000000  1.0
  O2-  O4  1  0.15900000  0.84100000  0.34100000  1.0
  O2-  O5  1  0.84100000  0.34100000  0.15900000  1.0
  O2-  O6  1  0.34100000  0.15900000  0.84100000  1.0
  O2-  O7  1  0.65900000  0.65900000  0.65900000  1.0
  O2-  O8  1  0.84100000  0.15900000  0.65900000  1.0
  O2-  O9  1  0.15900000  0.65900000  0.84100000  1.0
  O2-  O10  1  0.65900000  0.84100000  0.15900000  1.0
  O2-  O11  1  0.34100000  0.34100000  0.34100000  1.0
